/home/kang/bioinfo_study/VP2_PDB/temp.pdb
 OpenBabel05102415443D

 99 13  0  0  1  0  0  0  0  0999 V2000
  127.5650   25.1730  243.0520 O   0  0  0  0  0  0  0  0  0  0  0  0
  128.0260   25.5160  244.5440 P   0  0  0  0  0  0  0  0  0  0  0  0
  128.4540   24.2560  245.2190 O   0  0  0  0  0  0  0  0  0  0  0  0
  128.9520   26.6830  244.5030 O   0  0  0  0  0  0  0  0  0  0  0  0
  126.1320   24.7790  238.7860 C   0  0  0  0  0  0  0  0  0  0  0  0
  127.2470   26.2090  242.1090 C   0  0  0  0  0  0  0  0  0  0  0  0
  126.3760   25.6580  240.9980 C   0  0  2  0  0  0  0  0  0  0  0  0
  125.8970   26.7370  240.1530 O   0  0  0  0  0  0  0  0  0  0  0  0
  125.5800   26.2110  238.8710 C   0  0  0  0  0  0  0  0  0  0  0  0
  125.2160   24.6600  240.2500 C   0  0  0  0  0  0  0  0  0  0  0  0
  124.4670   24.5420  241.1440 O   0  0  0  0  0  0  0  0  0  0  0  0
  119.4840   13.5640  243.6900 Mg  0  0  0  0  0  0  0  0  0  0  0  0
  122.5230   18.7110  243.5390 Mg  0  0  0  0  0  0  0  0  0  0  0  0
  120.5830   10.7630  240.7390 O   0  0  0  0  0  0  0  0  0  0  0  0
  126.9240   25.0740  245.0620 O   0  0  0  0  0  0  0  0  0  0  0  0
   96.4450    6.4880  256.8330 Mg  0  0  0  0  0  0  0  0  0  0  0  0
   97.6990    3.1780  260.2040 Mg  0  0  0  0  0  0  0  0  0  0  0  0
   90.6590   36.9420  198.4230 O   0  0  0  0  0  0  0  0  0  0  0  0
   90.5900   31.9100  226.6950 O   0  0  0  0  0  0  0  0  0  0  0  0
   79.7060    9.2700  211.6380 O   0  0  0  0  0  0  0  0  0  0  0  0
  124.9010   38.0100  266.7100 O   0  0  0  0  0  0  0  0  0  0  0  0
  102.3160   50.7260  242.1900 O   0  0  0  0  0  0  0  0  0  0  0  0
   73.8090   20.4860  214.3390 O   0  0  0  0  0  0  0  0  0  0  0  0
   64.5020   20.5240  231.5680 O   0  0  0  0  0  0  0  0  0  0  0  0
   94.5220   16.9740  214.1200 O   0  0  0  0  0  0  0  0  0  0  0  0
  119.1050   12.6910  255.7130 O   0  0  0  0  0  0  0  0  0  0  0  0
   83.2060   14.8420  254.7260 O   0  0  0  0  0  0  0  0  0  0  0  0
   77.8020   22.9330  252.7970 O   0  0  0  0  0  0  0  0  0  0  0  0
   66.4160   14.0900  237.0120 O   0  0  0  0  0  0  0  0  0  0  0  0
   96.1980   29.1780  238.6460 O   0  0  0  0  0  0  0  0  0  0  0  0
   85.7300   35.7960  232.2340 O   0  0  0  0  0  0  0  0  0  0  0  0
  112.4840   41.5880  261.2930 O   0  0  0  0  0  0  0  0  0  0  0  0
  105.5550   33.3310  267.1940 O   0  0  0  0  0  0  0  0  0  0  0  0
   93.1900   34.1520  204.7890 O   0  0  0  0  0  0  0  0  0  0  0  0
  117.2700   19.3320  247.7680 O   0  0  0  0  0  0  0  0  0  0  0  0
  108.8460   25.8260  241.1300 O   0  0  0  0  0  0  0  0  0  0  0  0
  107.5150   41.5340  235.2520 O   0  0  0  0  0  0  0  0  0  0  0  0
  115.1400   21.1100  240.4310 O   0  0  0  0  0  0  0  0  0  0  0  0
   95.8090   44.8770  232.7830 O   0  0  0  0  0  0  0  0  0  0  0  0
   91.7940   12.6390  247.9160 O   0  0  0  0  0  0  0  0  0  0  0  0
  106.7240   17.3180  271.5450 O   0  0  0  0  0  0  0  0  0  0  0  0
  119.6080   21.2940  282.7350 O   0  0  0  0  0  0  0  0  0  0  0  0
   80.7940   13.5450  208.5980 O   0  0  0  0  0  0  0  0  0  0  0  0
   88.0750   34.6400  216.6410 O   0  0  0  0  0  0  0  0  0  0  0  0
   69.8400   22.1170  236.5100 O   0  0  0  0  0  0  0  0  0  0  0  0
   97.6360   19.7960  215.3490 O   0  0  0  0  0  0  0  0  0  0  0  0
   97.8360   20.5890  232.7670 O   0  0  0  0  0  0  0  0  0  0  0  0
  125.7780   37.8040  238.8660 O   0  0  0  0  0  0  0  0  0  0  0  0
   93.1650   40.5490  237.3900 O   0  0  0  0  0  0  0  0  0  0  0  0
   97.5480   45.4530  242.1440 O   0  0  0  0  0  0  0  0  0  0  0  0
  109.9350   39.7840  263.5540 O   0  0  0  0  0  0  0  0  0  0  0  0
   69.4380    6.2140  196.1500 O   0  0  0  0  0  0  0  0  0  0  0  0
  126.7520   47.5560  263.7650 O   0  0  0  0  0  0  0  0  0  0  0  0
  101.4940   44.7130  222.3420 O   0  0  0  0  0  0  0  0  0  0  0  0
   82.5660   28.4870  211.7670 O   0  0  0  0  0  0  0  0  0  0  0  0
   89.6380   28.8850  226.1350 O   0  0  0  0  0  0  0  0  0  0  0  0
   70.3710   29.3370  254.0560 O   0  0  0  0  0  0  0  0  0  0  0  0
  107.3330   44.3830  257.4140 O   0  0  0  0  0  0  0  0  0  0  0  0
  127.3610   35.0390  261.0380 O   0  0  0  0  0  0  0  0  0  0  0  0
   94.2110    8.4700  264.0490 O   0  0  0  0  0  0  0  0  0  0  0  0
   89.6940   30.3350  203.4050 O   0  0  0  0  0  0  0  0  0  0  0  0
   72.6000    6.1790  197.2780 O   0  0  0  0  0  0  0  0  0  0  0  0
   95.3770   31.9520  213.9240 O   0  0  0  0  0  0  0  0  0  0  0  0
   65.8250   -2.7490  209.8170 O   0  0  0  0  0  0  0  0  0  0  0  0
  102.8820    2.0670  263.3340 O   0  0  0  0  0  0  0  0  0  0  0  0
  102.9250   29.1620  242.4480 O   0  0  0  0  0  0  0  0  0  0  0  0
  128.7960   47.0740  261.0360 O   0  0  0  0  0  0  0  0  0  0  0  0
  121.6540   23.5640  270.2210 O   0  0  0  0  0  0  0  0  0  0  0  0
  117.7430   54.6280  269.0370 O   0  0  0  0  0  0  0  0  0  0  0  0
   91.2090   53.8250  245.0380 O   0  0  0  0  0  0  0  0  0  0  0  0
   92.8150    9.9960  234.3540 O   0  0  0  0  0  0  0  0  0  0  0  0
   86.5110   23.9760  216.7400 O   0  0  0  0  0  0  0  0  0  0  0  0
  125.1580   49.9980  265.4660 O   0  0  0  0  0  0  0  0  0  0  0  0
   84.0050   31.8790  266.7690 O   0  0  0  0  0  0  0  0  0  0  0  0
   85.3950   41.3280  243.1810 O   0  0  0  0  0  0  0  0  0  0  0  0
  100.8630    1.2200  265.7310 O   0  0  0  0  0  0  0  0  0  0  0  0
  120.8940   25.2470  248.4280 O   0  0  0  0  0  0  0  0  0  0  0  0
  117.4490   28.4680  272.4950 O   0  0  0  0  0  0  0  0  0  0  0  0
   87.0590   47.4640  232.4200 O   0  0  0  0  0  0  0  0  0  0  0  0
   99.8310    0.3280  261.6290 O   0  0  0  0  0  0  0  0  0  0  0  0
  116.1110   30.3410  231.8050 O   0  0  0  0  0  0  0  0  0  0  0  0
   97.2130   28.0180  241.5990 O   0  0  0  0  0  0  0  0  0  0  0  0
   96.1250   -0.0600  258.0730 O   0  0  0  0  0  0  0  0  0  0  0  0
  120.7300   49.7950  252.2360 O   0  0  0  0  0  0  0  0  0  0  0  0
   73.7060   24.4380  247.5910 O   0  0  0  0  0  0  0  0  0  0  0  0
  111.0250   22.1220  246.2140 O   0  0  0  0  0  0  0  0  0  0  0  0
   93.3100   30.7620  251.6480 O   0  0  0  0  0  0  0  0  0  0  0  0
   90.3920   40.1130  198.6660 O   0  0  0  0  0  0  0  0  0  0  0  0
  107.3140   30.8800  207.9790 O   0  0  0  0  0  0  0  0  0  0  0  0
   87.3250   27.5310  266.9580 O   0  0  0  0  0  0  0  0  0  0  0  0
  111.0380   55.1030  261.6600 O   0  0  0  0  0  0  0  0  0  0  0  0
  121.4670   53.2310  257.3140 O   0  0  0  0  0  0  0  0  0  0  0  0
  113.6310   35.4060  257.9110 O   0  0  0  0  0  0  0  0  0  0  0  0
  111.8240   33.0920  256.7160 O   0  0  0  0  0  0  0  0  0  0  0  0
   72.4350   36.0550  205.8160 O   0  0  0  0  0  0  0  0  0  0  0  0
   62.1260   -0.7660  221.0880 O   0  0  0  0  0  0  0  0  0  0  0  0
  118.5820   38.0450  228.9060 O   0  0  0  0  0  0  0  0  0  0  0  0
   91.0450   51.9370  236.3370 O   0  0  0  0  0  0  0  0  0  0  0  0
  119.7030   46.1040  226.2600 O   0  0  0  0  0  0  0  0  0  0  0  0
  1  2  1  0  0  0  0
  2 15  1  0  0  0  0
  2  3  1  0  0  0  0
  4  2  2  0  0  0  0
  5  9  1  0  0  0  0
  5 10  1  0  0  0  0
  6  1  1  0  0  0  0
  7  6  1  1  0  0  0
  8  7  1  0  0  0  0
  9  8  1  0  0  0  0
 10  7  1  0  0  0  0
 10 11  2  0  0  0  0
 15  3  1  0  0  0  0
M  END
