/home/kang/bioinfo_study/VP2_PDB/temp.pdb
 OpenBabel05102415443D

 65  0  0  0  0  0  0  0  0  0999 V2000
  171.6720  -13.6570  193.7620 O   0  0  0  0  0  0  0  0  0  0  0  0
  175.8200  -13.6110  191.2580 O   0  0  0  0  0  0  0  0  0  0  0  0
  170.4530  -19.0260  185.1900 O   0  0  0  0  0  0  0  0  0  0  0  0
  163.9090    2.5630  179.5070 O   0  0  0  0  0  0  0  0  0  0  0  0
  162.5400  -10.4940  191.7240 O   0  0  0  0  0  0  0  0  0  0  0  0
  176.3870  -13.3010  169.7060 O   0  0  0  0  0  0  0  0  0  0  0  0
  160.6870   -5.7110  185.4950 O   0  0  0  0  0  0  0  0  0  0  0  0
  150.2970    5.7520  214.1330 O   0  0  0  0  0  0  0  0  0  0  0  0
  146.8670  -46.1750  187.6280 O   0  0  0  0  0  0  0  0  0  0  0  0
  165.7480  -48.8370  199.9290 O   0  0  0  0  0  0  0  0  0  0  0  0
  165.2310  -64.7220  168.2610 O   0  0  0  0  0  0  0  0  0  0  0  0
  161.2690  -48.1920  193.8660 O   0  0  0  0  0  0  0  0  0  0  0  0
  179.1490  -34.0140  161.6160 O   0  0  0  0  0  0  0  0  0  0  0  0
  166.3820  -11.6770  183.4910 O   0  0  0  0  0  0  0  0  0  0  0  0
  160.5380  -27.3410  162.6450 O   0  0  0  0  0  0  0  0  0  0  0  0
  178.5000  -55.5360  209.5760 O   0  0  0  0  0  0  0  0  0  0  0  0
  154.9500   -8.3710  222.5420 O   0  0  0  0  0  0  0  0  0  0  0  0
  164.6060  -30.6950  157.5770 O   0  0  0  0  0  0  0  0  0  0  0  0
  148.1620  -60.8630  190.3690 O   0  0  0  0  0  0  0  0  0  0  0  0
  158.9380  -53.9060  197.7690 O   0  0  0  0  0  0  0  0  0  0  0  0
  166.8280  -11.1600  179.3870 O   0  0  0  0  0  0  0  0  0  0  0  0
  172.2880  -50.8510  163.5570 O   0  0  0  0  0  0  0  0  0  0  0  0
  161.8600  -41.6920  148.6960 O   0  0  0  0  0  0  0  0  0  0  0  0
  153.6590  -24.4110  167.6980 O   0  0  0  0  0  0  0  0  0  0  0  0
  171.1310  -50.3230  166.4120 O   0  0  0  0  0  0  0  0  0  0  0  0
  173.8730  -45.5170  186.7360 O   0  0  0  0  0  0  0  0  0  0  0  0
  179.1230  -33.2610  166.7910 O   0  0  0  0  0  0  0  0  0  0  0  0
  171.2670  -33.4910  138.7490 O   0  0  0  0  0  0  0  0  0  0  0  0
  165.0690   -0.7400  212.9380 O   0  0  0  0  0  0  0  0  0  0  0  0
  177.4770  -10.0460  197.4600 O   0  0  0  0  0  0  0  0  0  0  0  0
  151.3340  -23.6970  195.3600 O   0  0  0  0  0  0  0  0  0  0  0  0
  179.2880  -56.7370  149.7800 O   0  0  0  0  0  0  0  0  0  0  0  0
  150.3220  -29.2150  184.6190 O   0  0  0  0  0  0  0  0  0  0  0  0
  177.2050  -39.4710  151.2430 O   0  0  0  0  0  0  0  0  0  0  0  0
  158.1110  -44.5670  159.7220 O   0  0  0  0  0  0  0  0  0  0  0  0
  158.3320  -53.6670  181.7600 O   0  0  0  0  0  0  0  0  0  0  0  0
  183.6770  -42.6740  206.1210 O   0  0  0  0  0  0  0  0  0  0  0  0
  148.2000  -56.9690  193.8070 O   0  0  0  0  0  0  0  0  0  0  0  0
  165.7010   -2.3250  216.0520 O   0  0  0  0  0  0  0  0  0  0  0  0
  175.9050  -72.7810  150.6220 O   0  0  0  0  0  0  0  0  0  0  0  0
  144.9730  -15.4800  207.3100 O   0  0  0  0  0  0  0  0  0  0  0  0
  156.5320  -27.3540  182.8050 O   0  0  0  0  0  0  0  0  0  0  0  0
  163.9970    1.8230  215.7440 O   0  0  0  0  0  0  0  0  0  0  0  0
  181.3720  -48.3180  144.5140 O   0  0  0  0  0  0  0  0  0  0  0  0
  173.9590   10.0700  209.2450 O   0  0  0  0  0  0  0  0  0  0  0  0
  166.0440  -27.3020  201.4260 O   0  0  0  0  0  0  0  0  0  0  0  0
  161.2280  -32.2110  156.6500 O   0  0  0  0  0  0  0  0  0  0  0  0
  143.3490  -38.8840  182.9660 O   0  0  0  0  0  0  0  0  0  0  0  0
  182.8840  -19.0460  180.6140 O   0  0  0  0  0  0  0  0  0  0  0  0
  159.5510  -28.1170  183.5050 O   0  0  0  0  0  0  0  0  0  0  0  0
  148.4310   -9.4440  222.6990 O   0  0  0  0  0  0  0  0  0  0  0  0
  158.7270  -25.5080  158.7280 O   0  0  0  0  0  0  0  0  0  0  0  0
  190.2220  -35.0820  167.5530 O   0  0  0  0  0  0  0  0  0  0  0  0
  176.7840  -59.0990  192.4000 O   0  0  0  0  0  0  0  0  0  0  0  0
  161.8170  -36.5210  171.1100 O   0  0  0  0  0  0  0  0  0  0  0  0
  183.3720  -28.8820  189.4170 O   0  0  0  0  0  0  0  0  0  0  0  0
  181.1010  -43.2320  151.0540 O   0  0  0  0  0  0  0  0  0  0  0  0
  167.4280  -26.6900  154.7130 O   0  0  0  0  0  0  0  0  0  0  0  0
  174.8870  -33.9090  178.1080 O   0  0  0  0  0  0  0  0  0  0  0  0
  152.6470   -2.3120  223.3060 O   0  0  0  0  0  0  0  0  0  0  0  0
  161.9460  -23.2510  209.8370 O   0  0  0  0  0  0  0  0  0  0  0  0
  176.4480  -47.9170  150.2180 O   0  0  0  0  0  0  0  0  0  0  0  0
  189.5370  -49.3960  150.7620 O   0  0  0  0  0  0  0  0  0  0  0  0
  155.9070    5.5330  210.7440 O   0  0  0  0  0  0  0  0  0  0  0  0
  182.6360  -46.5990  198.8250 O   0  0  0  0  0  0  0  0  0  0  0  0
M  END
