
     RDKit          3D

 50 51  0  0  0  0  0  0  0  0999 V2000
   -5.3336    0.3969   -0.6420 C   0  0  0  0  0  0  0  0  0  0  0  0
   -4.5442   -0.8971   -0.3838 C   0  0  0  0  0  0  0  0  0  0  0  0
   -4.1173   -1.4712   -1.7398 C   0  0  0  0  0  0  0  0  0  0  0  0
   -3.3529   -0.6368    0.5858 C   0  0  0  0  0  0  0  0  0  0  0  0
   -2.2838   -1.7368    0.5535 C   0  0  0  0  0  0  0  0  0  0  0  0
   -1.1637   -1.5647    1.5848 C   0  0  0  0  0  0  0  0  0  0  0  0
   -1.5277   -0.7393    2.8238 C   0  0  0  0  0  0  0  0  0  0  0  0
   -0.6957   -0.4258    3.6762 O   0  0  0  0  0  0  0  0  0  0  0  0
   -2.8475   -0.4179    2.9800 N   0  0  0  0  0  0  0  0  0  0  0  0
   -3.8319   -0.4659    2.0270 C   0  0  0  0  0  0  0  0  0  0  0  0
   -5.0053   -0.3298    2.3596 O   0  0  0  0  0  0  0  0  0  0  0  0
    0.1270   -1.1410    1.0476 N   0  0  0  0  0  0  0  0  0  0  0  0
    0.3105    0.0653    0.4003 C   0  0  0  0  0  0  0  0  0  0  0  0
   -0.6191    0.8190    0.1323 O   0  0  0  0  0  0  0  0  0  0  0  0
    1.7866    0.3916    0.0882 C   0  0  0  0  0  0  0  0  0  0  0  0
    1.8630    0.8869   -1.3723 C   0  0  0  0  0  0  0  0  0  0  0  0
    3.2807    1.0144   -1.8840 C   0  0  0  0  0  0  0  0  0  0  0  0
    3.8889    2.2735   -1.9788 C   0  0  0  0  0  0  0  0  0  0  0  0
    5.2043    2.3913   -2.4293 C   0  0  0  0  0  0  0  0  0  0  0  0
    5.9233    1.2532   -2.7888 C   0  0  0  0  0  0  0  0  0  0  0  0
    5.3274   -0.0035   -2.7000 C   0  0  0  0  0  0  0  0  0  0  0  0
    4.0118   -0.1239   -2.2500 C   0  0  0  0  0  0  0  0  0  0  0  0
    2.3193    1.4263    1.0152 N   0  0  0  0  0  0  0  0  0  0  0  0
    2.1996    1.1095    2.4499 C   0  0  0  0  0  0  0  0  0  0  0  0
    2.8020   -0.1785    2.8479 C   0  0  0  0  0  0  0  0  0  0  0  0
    3.2425   -1.2271    3.0830 N   0  0  0  0  0  0  0  0  0  0  0  0
   -4.7079    1.1470   -1.1383 H   0  0  0  0  0  0  0  0  0  0  0  0
   -5.7153    0.8381    0.2823 H   0  0  0  0  0  0  0  0  0  0  0  0
   -6.1966    0.2004   -1.2877 H   0  0  0  0  0  0  0  0  0  0  0  0
   -5.2294   -1.6204    0.0776 H   0  0  0  0  0  0  0  0  0  0  0  0
   -4.9744   -1.5485   -2.4180 H   0  0  0  0  0  0  0  0  0  0  0  0
   -3.7065   -2.4800   -1.6343 H   0  0  0  0  0  0  0  0  0  0  0  0
   -3.3645   -0.8368   -2.2199 H   0  0  0  0  0  0  0  0  0  0  0  0
   -2.9006    0.3185    0.3018 H   0  0  0  0  0  0  0  0  0  0  0  0
   -2.7825   -2.6946    0.7591 H   0  0  0  0  0  0  0  0  0  0  0  0
   -1.8440   -1.8267   -0.4463 H   0  0  0  0  0  0  0  0  0  0  0  0
   -0.9558   -2.5710    1.9756 H   0  0  0  0  0  0  0  0  0  0  0  0
   -3.1250   -0.0617    3.8836 H   0  0  0  0  0  0  0  0  0  0  0  0
    0.9420   -1.5762    1.4691 H   0  0  0  0  0  0  0  0  0  0  0  0
    2.3835   -0.5245    0.1779 H   0  0  0  0  0  0  0  0  0  0  0  0
    1.3412    1.8478   -1.4797 H   0  0  0  0  0  0  0  0  0  0  0  0
    1.3218    0.1932   -2.0305 H   0  0  0  0  0  0  0  0  0  0  0  0
    3.3400    3.1712   -1.7005 H   0  0  0  0  0  0  0  0  0  0  0  0
    5.6674    3.3720   -2.5018 H   0  0  0  0  0  0  0  0  0  0  0  0
    6.9472    1.3458   -3.1415 H   0  0  0  0  0  0  0  0  0  0  0  0
    5.8879   -0.8905   -2.9838 H   0  0  0  0  0  0  0  0  0  0  0  0
    3.5622   -1.1125   -2.1908 H   0  0  0  0  0  0  0  0  0  0  0  0
    3.3043    1.5763    0.7873 H   0  0  0  0  0  0  0  0  0  0  0  0
    1.1483    1.1499    2.7483 H   0  0  0  0  0  0  0  0  0  0  0  0
    2.6928    1.9148    3.0066 H   0  0  0  0  0  0  0  0  0  0  0  0
  1  2  1  0
  2  3  1  0
  2  4  1  0
  4  5  1  0
  5  6  1  0
  6  7  1  0
  7  8  2  0
  7  9  1  0
  9 10  1  0
 10 11  2  0
  6 12  1  0
 12 13  1  0
 13 14  2  0
 13 15  1  0
 15 16  1  0
 16 17  1  0
 17 18  2  0
 18 19  1  0
 19 20  2  0
 20 21  1  0
 21 22  2  0
 15 23  1  0
 23 24  1  0
 24 25  1  0
 25 26  3  0
 10  4  1  0
 22 17  1  0
  1 27  1  0
  1 28  1  0
  1 29  1  0
  2 30  1  0
  3 31  1  0
  3 32  1  0
  3 33  1  0
  4 34  1  0
  5 35  1  0
  5 36  1  0
  6 37  1  0
  9 38  1  0
 12 39  1  0
 15 40  1  0
 16 41  1  0
 16 42  1  0
 18 43  1  0
 19 44  1  0
 20 45  1  0
 21 46  1  0
 22 47  1  0
 23 48  1  0
 24 49  1  0
 24 50  1  0
M  END
