
     RDKit          3D

 54 55  0  0  0  0  0  0  0  0999 V2000
    5.7813   -1.7553   -0.0178 C   0  0  0  0  0  0  0  0  0  0  0  0
    4.2890   -1.6199   -0.3400 C   0  0  0  0  0  0  0  0  0  0  0  0
    4.0715   -1.6102   -1.8556 C   0  0  0  0  0  0  0  0  0  0  0  0
    3.6308   -0.4291    0.4046 C   0  0  0  0  0  0  0  0  0  0  0  0
    2.0996   -0.5065    0.3491 C   0  0  0  0  0  0  0  0  0  0  0  0
    1.4987    0.5666    1.2582 C   0  0  0  0  0  0  0  0  0  0  0  0
    2.0357    1.9650    0.9143 C   0  0  0  0  0  0  0  0  0  0  0  0
    1.4732    3.0107    1.2366 O   0  0  0  0  0  0  0  0  0  0  0  0
    3.2663    2.0043    0.3000 N   0  0  0  0  0  0  0  0  0  0  0  0
    4.0754    0.9551   -0.0680 C   0  0  0  0  0  0  0  0  0  0  0  0
    5.1222    1.1754   -0.6689 O   0  0  0  0  0  0  0  0  0  0  0  0
    0.0461    0.5375    1.2888 N   0  0  0  0  0  0  0  0  0  0  0  0
   -0.7293    0.7328    0.1590 C   0  0  0  0  0  0  0  0  0  0  0  0
   -0.2568    1.0269   -0.9335 O   0  0  0  0  0  0  0  0  0  0  0  0
   -2.2365    0.5087    0.4370 C   0  0  0  0  0  0  0  0  0  0  0  0
   -3.1133    0.6764   -0.8196 C   0  0  0  0  0  0  0  0  0  0  0  0
   -3.4777    2.1184   -1.0946 C   0  0  0  0  0  0  0  0  0  0  0  0
   -2.6996    2.9018   -1.9558 C   0  0  0  0  0  0  0  0  0  0  0  0
   -3.0308    4.2369   -2.1921 C   0  0  0  0  0  0  0  0  0  0  0  0
   -4.1423    4.8020   -1.5706 C   0  0  0  0  0  0  0  0  0  0  0  0
   -4.9232    4.0330   -0.7104 C   0  0  0  0  0  0  0  0  0  0  0  0
   -4.5925    2.6982   -0.4713 C   0  0  0  0  0  0  0  0  0  0  0  0
   -2.4014   -0.8084    1.1218 N   0  0  0  0  0  0  0  0  0  0  0  0
   -2.0919   -1.9508    0.2594 C   0  0  0  0  0  0  0  0  0  0  0  0
   -2.2169   -3.1842    1.0467 C   0  0  0  0  0  0  0  0  0  0  0  0
   -2.3204   -4.1937    1.6901 C   0  0  0  0  0  0  0  0  0  0  0  0
   -2.4465   -5.4212    2.4762 C   0  0  0  0  0  0  0  0  0  0  0  0
    5.9488   -1.7605    1.0643 H   0  0  0  0  0  0  0  0  0  0  0  0
    6.3762   -0.9475   -0.4526 H   0  0  0  0  0  0  0  0  0  0  0  0
    6.1723   -2.6984   -0.4158 H   0  0  0  0  0  0  0  0  0  0  0  0
    3.8155   -2.5354    0.0417 H   0  0  0  0  0  0  0  0  0  0  0  0
    3.0072   -1.6179   -2.1077 H   0  0  0  0  0  0  0  0  0  0  0  0
    4.5285   -0.7373   -2.3308 H   0  0  0  0  0  0  0  0  0  0  0  0
    4.5167   -2.5023   -2.3104 H   0  0  0  0  0  0  0  0  0  0  0  0
    3.9354   -0.4959    1.4591 H   0  0  0  0  0  0  0  0  0  0  0  0
    1.7594   -0.3715   -0.6831 H   0  0  0  0  0  0  0  0  0  0  0  0
    1.7536   -1.4953    0.6743 H   0  0  0  0  0  0  0  0  0  0  0  0
    1.8139    0.3738    2.2920 H   0  0  0  0  0  0  0  0  0  0  0  0
    3.5900    2.9246    0.0366 H   0  0  0  0  0  0  0  0  0  0  0  0
   -0.4241    0.0352    2.0374 H   0  0  0  0  0  0  0  0  0  0  0  0
   -2.5194    1.2694    1.1772 H   0  0  0  0  0  0  0  0  0  0  0  0
   -4.0549    0.1238   -0.6960 H   0  0  0  0  0  0  0  0  0  0  0  0
   -2.6313    0.2423   -1.7049 H   0  0  0  0  0  0  0  0  0  0  0  0
   -1.8224    2.4808   -2.4443 H   0  0  0  0  0  0  0  0  0  0  0  0
   -2.4156    4.8363   -2.8581 H   0  0  0  0  0  0  0  0  0  0  0  0
   -4.3967    5.8423   -1.7543 H   0  0  0  0  0  0  0  0  0  0  0  0
   -5.7887    4.4745   -0.2236 H   0  0  0  0  0  0  0  0  0  0  0  0
   -5.2121    2.1144    0.2053 H   0  0  0  0  0  0  0  0  0  0  0  0
   -3.3734   -0.8976    1.4201 H   0  0  0  0  0  0  0  0  0  0  0  0
   -1.0714   -1.8865   -0.1329 H   0  0  0  0  0  0  0  0  0  0  0  0
   -2.7784   -1.9994   -0.5925 H   0  0  0  0  0  0  0  0  0  0  0  0
   -1.4612   -5.8303    2.7191 H   0  0  0  0  0  0  0  0  0  0  0  0
   -2.9755   -5.2296    3.4146 H   0  0  0  0  0  0  0  0  0  0  0  0
   -3.0032   -6.1827    1.9218 H   0  0  0  0  0  0  0  0  0  0  0  0
  1  2  1  0
  2  3  1  0
  2  4  1  0
  4  5  1  0
  5  6  1  0
  6  7  1  0
  7  8  2  0
  7  9  1  0
  9 10  1  0
 10 11  2  0
  6 12  1  0
 12 13  1  0
 13 14  2  0
 13 15  1  0
 15 16  1  0
 16 17  1  0
 17 18  2  0
 18 19  1  0
 19 20  2  0
 20 21  1  0
 21 22  2  0
 15 23  1  0
 23 24  1  0
 24 25  1  0
 25 26  3  0
 26 27  1  0
 10  4  1  0
 22 17  1  0
  1 28  1  0
  1 29  1  0
  1 30  1  0
  2 31  1  0
  3 32  1  0
  3 33  1  0
  3 34  1  0
  4 35  1  0
  5 36  1  0
  5 37  1  0
  6 38  1  0
  9 39  1  0
 12 40  1  0
 15 41  1  0
 16 42  1  0
 16 43  1  0
 18 44  1  0
 19 45  1  0
 20 46  1  0
 21 47  1  0
 22 48  1  0
 23 49  1  0
 24 50  1  0
 24 51  1  0
 27 52  1  0
 27 53  1  0
 27 54  1  0
M  END
