
     RDKit          3D

 48 49  0  0  0  0  0  0  0  0999 V2000
    5.9320   -1.0864   -2.8377 C   0  0  0  0  0  0  0  0  0  0  0  0
    5.7734   -0.6520   -1.4497 C   0  0  0  0  0  0  0  0  0  0  0  0
    5.6403   -0.3035   -0.3075 C   0  0  0  0  0  0  0  0  0  0  0  0
    5.4757    0.1221    1.0896 C   0  0  0  0  0  0  0  0  0  0  0  0
    4.3186   -0.4724    1.6839 O   0  0  0  0  0  0  0  0  0  0  0  0
    3.1064    0.1331    1.5057 C   0  0  0  0  0  0  0  0  0  0  0  0
    2.8299    1.1865    0.6328 C   0  0  0  0  0  0  0  0  0  0  0  0
    1.5329    1.7032    0.5421 C   0  0  0  0  0  0  0  0  0  0  0  0
    0.5049    1.1489    1.3111 C   0  0  0  0  0  0  0  0  0  0  0  0
    0.7782    0.1169    2.2083 C   0  0  0  0  0  0  0  0  0  0  0  0
    2.0748   -0.3956    2.2888 C   0  0  0  0  0  0  0  0  0  0  0  0
   -1.1324    1.8299    1.2050 S   0  0  0  0  0  6  0  0  0  0  0  0
   -1.0040    3.2161    0.8082 O   0  0  0  0  0  0  0  0  0  0  0  0
   -1.8548    1.4921    2.4099 O   0  0  0  0  0  0  0  0  0  0  0  0
   -1.8667    0.9805   -0.0970 N   0  0  0  0  0  0  0  0  0  0  0  0
   -1.2849    1.3587   -1.4342 C   0  0  0  0  0  0  0  0  0  0  0  0
   -2.2537    1.0904   -2.5761 C   0  0  0  0  0  0  0  0  0  0  0  0
   -2.5522   -0.6875   -2.7553 S   0  0  0  0  0  0  0  0  0  0  0  0
   -3.1136   -1.0611   -1.0209 C   0  0  0  0  0  0  0  0  0  0  0  0
   -2.0637   -0.5260    0.0282 C   0  0  2  0  0  0  0  0  0  0  0  0
   -2.4153   -1.0897    1.4099 C   0  0  0  0  0  0  0  0  0  0  0  0
   -1.8070   -2.0482    1.8949 O   0  0  0  0  0  0  0  0  0  0  0  0
   -3.5005   -0.5389    2.0561 N   0  0  0  0  0  0  0  0  0  0  0  0
   -3.7593   -1.1263    3.3272 O   0  0  0  0  0  0  0  0  0  0  0  0
   -4.5227   -0.4624   -0.8556 C   0  0  0  0  0  0  0  0  0  0  0  0
   -3.2198   -2.5996   -0.9758 C   0  0  0  0  0  0  0  0  0  0  0  0
    6.3867   -0.2964   -3.4429 H   0  0  0  0  0  0  0  0  0  0  0  0
    4.9631   -1.3376   -3.2796 H   0  0  0  0  0  0  0  0  0  0  0  0
    6.5724   -1.9715   -2.8977 H   0  0  0  0  0  0  0  0  0  0  0  0
    5.4722    1.2126    1.2001 H   0  0  0  0  0  0  0  0  0  0  0  0
    6.3357   -0.2341    1.6683 H   0  0  0  0  0  0  0  0  0  0  0  0
    3.5973    1.6263    0.0035 H   0  0  0  0  0  0  0  0  0  0  0  0
    1.3395    2.5383   -0.1279 H   0  0  0  0  0  0  0  0  0  0  0  0
    0.0051   -0.2972    2.8515 H   0  0  0  0  0  0  0  0  0  0  0  0
    2.2863   -1.2123    2.9767 H   0  0  0  0  0  0  0  0  0  0  0  0
   -0.3378    0.8301   -1.5949 H   0  0  0  0  0  0  0  0  0  0  0  0
   -1.0677    2.4313   -1.4595 H   0  0  0  0  0  0  0  0  0  0  0  0
   -1.8251    1.4538   -3.5157 H   0  0  0  0  0  0  0  0  0  0  0  0
   -3.2032    1.6133   -2.4268 H   0  0  0  0  0  0  0  0  0  0  0  0
   -1.0877   -0.9764   -0.2123 H   0  0  0  0  0  0  0  0  0  0  0  0
   -3.5272    0.4838    2.0758 H   0  0  0  0  0  0  0  0  0  0  0  0
   -3.0623   -1.8145    3.3968 H   0  0  0  0  0  0  0  0  0  0  0  0
   -5.0222   -0.8527    0.0367 H   0  0  0  0  0  0  0  0  0  0  0  0
   -5.1747   -0.7206   -1.6992 H   0  0  0  0  0  0  0  0  0  0  0  0
   -4.5061    0.6284   -0.7671 H   0  0  0  0  0  0  0  0  0  0  0  0
   -3.8743   -2.9881   -1.7660 H   0  0  0  0  0  0  0  0  0  0  0  0
   -3.6484   -2.9443   -0.0281 H   0  0  0  0  0  0  0  0  0  0  0  0
   -2.2380   -3.0757   -1.0835 H   0  0  0  0  0  0  0  0  0  0  0  0
  1  2  1  0
  2  3  3  0
  3  4  1  0
  4  5  1  0
  5  6  1  0
  6  7  2  0
  7  8  1  0
  8  9  2  0
  9 10  1  0
 10 11  2  0
  9 12  1  0
 12 13  2  0
 12 14  2  0
 12 15  1  0
 15 16  1  0
 16 17  1  0
 17 18  1  0
 18 19  1  0
 19 20  1  0
 20 21  1  0
 21 22  2  0
 21 23  1  0
 23 24  1  0
 19 25  1  0
 19 26  1  0
 11  6  1  0
 20 15  1  0
  1 27  1  0
  1 28  1  0
  1 29  1  0
  4 30  1  0
  4 31  1  0
  7 32  1  0
  8 33  1  0
 10 34  1  0
 11 35  1  0
 16 36  1  0
 16 37  1  0
 17 38  1  0
 17 39  1  0
 20 40  1  6
 23 41  1  0
 24 42  1  0
 25 43  1  0
 25 44  1  0
 25 45  1  0
 26 46  1  0
 26 47  1  0
 26 48  1  0
M  END
