
     RDKit          3D

 53 54  0  0  0  0  0  0  0  0999 V2000
    4.3633    1.3063    1.3612 C   0  0  0  0  0  0  0  0  0  0  0  0
    4.6084    1.1355   -0.1406 C   0  0  0  0  0  0  0  0  0  0  0  0
    6.0961    0.8842   -0.4103 C   0  0  0  0  0  0  0  0  0  0  0  0
    3.6994    0.0754   -0.8154 C   0  0  0  0  0  0  0  0  0  0  0  0
    2.2313    0.5265   -0.8446 C   0  0  0  0  0  0  0  0  0  0  0  0
    1.4197   -0.4580   -1.6878 C   0  0  0  0  0  0  0  0  0  0  0  0
    1.5855   -1.8983   -1.1950 C   0  0  0  0  0  0  0  0  0  0  0  0
    0.8093   -2.8002   -1.5112 O   0  0  0  0  0  0  0  0  0  0  0  0
    2.7237   -2.1656   -0.4741 N   0  0  0  0  0  0  0  0  0  0  0  0
    3.7789   -1.3250   -0.2031 C   0  0  0  0  0  0  0  0  0  0  0  0
    4.7484   -1.7511    0.4166 O   0  0  0  0  0  0  0  0  0  0  0  0
    0.0059   -0.1283   -1.8555 N   0  0  0  0  0  0  0  0  0  0  0  0
   -0.8339    0.1144   -0.7771 C   0  0  0  0  0  0  0  0  0  0  0  0
   -0.4180    0.1951    0.3738 O   0  0  0  0  0  0  0  0  0  0  0  0
   -2.3163    0.3051   -1.1860 C   0  0  0  0  0  0  0  0  0  0  0  0
   -3.0260   -1.0618   -1.3153 C   0  0  0  0  0  0  0  0  0  0  0  0
   -3.0494   -1.9399   -0.0849 C   0  0  0  0  0  0  0  0  0  0  0  0
   -3.8542   -1.6209    1.0167 C   0  0  0  0  0  0  0  0  0  0  0  0
   -3.8762   -2.4432    2.1452 C   0  0  0  0  0  0  0  0  0  0  0  0
   -3.0970   -3.5968    2.1847 C   0  0  0  0  0  0  0  0  0  0  0  0
   -2.2951   -3.9280    1.0955 C   0  0  0  0  0  0  0  0  0  0  0  0
   -2.2726   -3.1059   -0.0330 C   0  0  0  0  0  0  0  0  0  0  0  0
   -3.0427    1.2447   -0.3015 N   0  0  0  0  0  0  0  0  0  0  0  0
   -2.4530    2.5806   -0.2894 C   0  0  0  0  0  0  0  0  0  0  0  0
   -3.3357    3.5004    0.4385 C   0  0  0  0  0  0  0  0  0  0  0  0
   -4.0541    4.2605    1.0252 C   0  0  0  0  0  0  0  0  0  0  0  0
   -4.9298    5.1853    1.7402 N   0  0  0  0  0  0  0  0  0  0  0  0
    4.9996    2.1027    1.7633 H   0  0  0  0  0  0  0  0  0  0  0  0
    3.3267    1.5871    1.5687 H   0  0  0  0  0  0  0  0  0  0  0  0
    4.5881    0.3932    1.9201 H   0  0  0  0  0  0  0  0  0  0  0  0
    4.3770    2.1012   -0.6118 H   0  0  0  0  0  0  0  0  0  0  0  0
    6.2832    0.7554   -1.4814 H   0  0  0  0  0  0  0  0  0  0  0  0
    6.6935    1.7384   -0.0724 H   0  0  0  0  0  0  0  0  0  0  0  0
    6.4701   -0.0007    0.1117 H   0  0  0  0  0  0  0  0  0  0  0  0
    4.0407   -0.0340   -1.8550 H   0  0  0  0  0  0  0  0  0  0  0  0
    1.8546    0.5740    0.1807 H   0  0  0  0  0  0  0  0  0  0  0  0
    2.1443    1.5330   -1.2709 H   0  0  0  0  0  0  0  0  0  0  0  0
    1.8269   -0.4491   -2.7079 H   0  0  0  0  0  0  0  0  0  0  0  0
    2.8173   -3.1105   -0.1277 H   0  0  0  0  0  0  0  0  0  0  0  0
   -0.4354   -0.5438   -2.6669 H   0  0  0  0  0  0  0  0  0  0  0  0
   -2.3216    0.7517   -2.1907 H   0  0  0  0  0  0  0  0  0  0  0  0
   -4.0636   -0.9056   -1.6413 H   0  0  0  0  0  0  0  0  0  0  0  0
   -2.5549   -1.6209   -2.1354 H   0  0  0  0  0  0  0  0  0  0  0  0
   -4.4643   -0.7211    1.0122 H   0  0  0  0  0  0  0  0  0  0  0  0
   -4.4970   -2.1767    2.9961 H   0  0  0  0  0  0  0  0  0  0  0  0
   -3.1101   -4.2328    3.0651 H   0  0  0  0  0  0  0  0  0  0  0  0
   -1.6812   -4.8240    1.1236 H   0  0  0  0  0  0  0  0  0  0  0  0
   -1.6354   -3.3855   -0.8690 H   0  0  0  0  0  0  0  0  0  0  0  0
   -4.0101    1.3162   -0.6105 H   0  0  0  0  0  0  0  0  0  0  0  0
   -1.4718    2.5739    0.1958 H   0  0  0  0  0  0  0  0  0  0  0  0
   -2.3210    2.9526   -1.3122 H   0  0  0  0  0  0  0  0  0  0  0  0
   -4.4282    5.8186    2.3605 H   0  0  0  0  0  0  0  0  0  0  0  0
   -5.6435    4.7158    2.2950 H   0  0  0  0  0  0  0  0  0  0  0  0
  1  2  1  0
  2  3  1  0
  2  4  1  0
  4  5  1  0
  5  6  1  0
  6  7  1  0
  7  8  2  0
  7  9  1  0
  9 10  1  0
 10 11  2  0
  6 12  1  0
 12 13  1  0
 13 14  2  0
 13 15  1  0
 15 16  1  0
 16 17  1  0
 17 18  2  0
 18 19  1  0
 19 20  2  0
 20 21  1  0
 21 22  2  0
 15 23  1  0
 23 24  1  0
 24 25  1  0
 25 26  3  0
 26 27  1  0
 10  4  1  0
 22 17  1  0
  1 28  1  0
  1 29  1  0
  1 30  1  0
  2 31  1  0
  3 32  1  0
  3 33  1  0
  3 34  1  0
  4 35  1  0
  5 36  1  0
  5 37  1  0
  6 38  1  0
  9 39  1  0
 12 40  1  0
 15 41  1  0
 16 42  1  0
 16 43  1  0
 18 44  1  0
 19 45  1  0
 20 46  1  0
 21 47  1  0
 22 48  1  0
 23 49  1  0
 24 50  1  0
 24 51  1  0
 27 52  1  0
 27 53  1  0
M  END
